76
From_Clipboard
H       1.82976      1.74952      0.00000
H      -1.82976     -1.74952      0.00000
C       1.04465      0.99984      0.00000
C       2.54496     -1.10905      0.00000
C       4.51122     -2.05852      0.00000
C      -1.34845      0.35911      0.00000
C      -0.29894      1.37956      0.00000
C       1.34845     -0.35911      0.00000
C       0.29894     -1.37956      0.00000
C      -1.04465     -0.99984      0.00000
C      -2.54496      1.10905      0.00000
C      -0.88973      2.68505      0.00000
C       0.88973     -2.68505      0.00000
C       2.28780     -2.49378      0.00000
O      -3.86558      0.82010      0.00000
O       3.86558     -0.82010      0.00000
C      -2.28780      2.49378      0.00000
C      -3.58601      3.12777      0.00000
C       3.58601     -3.12777      0.00000
C       5.88061     -2.22758      0.00000
C       6.35072     -3.54459      0.00000
H       6.55209     -1.37814      0.00000
C       4.08249     -4.43477      0.00000
C       5.46374     -4.62788      0.00000
H       7.41901     -3.72609      0.00000
H       3.40558     -5.28067      0.00000
H       5.85988     -5.63686      0.00000
C      -4.51122      2.05852      0.00000
C      -5.88061      2.22758      0.00000
C      -6.35072      3.54459      0.00000
H      -6.55209      1.37814      0.00000
C      -4.08249      4.43477      0.00000
C      -5.46374      4.62788      0.00000
H      -7.41901      3.72609      0.00000
H      -3.40558      5.28067      0.00000
H      -5.85988      5.63686      0.00000
C      -0.16195      3.97868      0.00000
C       0.18085      4.59414      1.22046
C       0.18085      4.59414     -1.22046
C       0.86428      5.81227      1.19643
C       0.86428      5.81227     -1.19643
C       1.21423      6.43957      0.00000
H       1.13100      6.28042      2.13953
H       1.13100      6.28042     -2.13953
C       0.16195     -3.97868      0.00000
C      -0.18085     -4.59414      1.22046
C      -0.18085     -4.59414     -1.22046
C      -0.86428     -5.81227      1.19643
C      -0.86428     -5.81227     -1.19643
C      -1.21423     -6.43957      0.00000
H      -1.13100     -6.28042      2.13953
H      -1.13100     -6.28042     -2.13953
C       1.92570      7.77144      0.00000
H       1.20822      8.59955      0.00000
H       2.55664      7.88649      0.88452
H       2.55664      7.88649     -0.88452
C      -1.92570     -7.77144      0.00000
H      -1.20822     -8.59955      0.00000
H      -2.55664     -7.88649      0.88452
H      -2.55664     -7.88649     -0.88452
C       0.18085     -3.95840      2.54295
H       1.26309     -3.83346      2.64280
H      -0.26293     -2.96416      2.64548
H      -0.16649     -4.57227      3.37602
C       0.18085     -3.95840     -2.54295
H      -0.26293     -2.96416     -2.64548
H       1.26309     -3.83346     -2.64280
H      -0.16649     -4.57227     -3.37602
C      -0.18085      3.95840      2.54295
H      -1.26309      3.83346      2.64280
H       0.26293      2.96416      2.64548
H       0.16649      4.57227      3.37602
C      -0.18085      3.95840     -2.54295
H       0.26293      2.96416     -2.64548
H      -1.26309      3.83346     -2.64280
H       0.16649      4.57227     -3.37602

