829
Molecule with interpolated Bq points
H   1.829760  1.749520  0.000000
H  -1.829760 -1.749520  0.000000
C   1.044650  0.999840  0.000000
C   2.544960 -1.109050  0.000000
C   4.511220 -2.058520  0.000000
C  -1.348450  0.359110  0.000000
C  -0.298940  1.379560  0.000000
C   1.348450 -0.359110  0.000000
C   0.298940 -1.379560  0.000000
C  -1.044650 -0.999840  0.000000
C  -2.544960  1.109050  0.000000
C  -0.889730  2.685050  0.000000
C   0.889730 -2.685050  0.000000
C   2.287800 -2.493780  0.000000
O  -3.865580  0.820100  0.000000
O   3.865580 -0.820100  0.000000
C  -2.287800  2.493780  0.000000
C  -3.586010  3.127770  0.000000
C   3.586010 -3.127770  0.000000
C   5.880610 -2.227580  0.000000
C   6.350720 -3.544590  0.000000
H   6.552090 -1.378140  0.000000
C   4.082490 -4.434770  0.000000
C   5.463740 -4.627880  0.000000
H   7.419010 -3.726090  0.000000
H   3.405580 -5.280670  0.000000
H   5.859880 -5.636860  0.000000
C  -4.511220  2.058520  0.000000
C  -5.880610  2.227580  0.000000
C  -6.350720  3.544590  0.000000
H  -6.552090  1.378140  0.000000
C  -4.082490  4.434770  0.000000
C  -5.463740  4.627880  0.000000
H  -7.419010  3.726090  0.000000
H  -3.405580  5.280670  0.000000
H  -5.859880  5.636860  0.000000
C  -0.161950  3.978680  0.000000
C   0.180850  4.594140  1.220460
C   0.180850  4.594140 -1.220460
C   0.864280  5.812270  1.196430
C   0.864280  5.812270 -1.196430
C   1.214230  6.439570  0.000000
H   1.131000  6.280420  2.139530
H   1.131000  6.280420 -2.139530
C   0.161950 -3.978680  0.000000
C  -0.180850 -4.594140  1.220460
C  -0.180850 -4.594140 -1.220460
C  -0.864280 -5.812270  1.196430
C  -0.864280 -5.812270 -1.196430
C  -1.214230 -6.439570  0.000000
H  -1.131000 -6.280420  2.139530
H  -1.131000 -6.280420 -2.139530
C   1.925700  7.771440  0.000000
H   1.208220  8.599550  0.000000
H   2.556640  7.886490  0.884520
H   2.556640  7.886490 -0.884520
C  -1.925700 -7.771440  0.000000
H  -1.208220 -8.599550  0.000000
H  -2.556640 -7.886490  0.884520
H  -2.556640 -7.886490 -0.884520
C   0.180850 -3.958400  2.542950
H   1.263090 -3.833460  2.642800
H  -0.262930 -2.964160  2.645480
H  -0.166490 -4.572270  3.376020
C   0.180850 -3.958400 -2.542950
H  -0.262930 -2.964160 -2.645480
H   1.263090 -3.833460 -2.642800
H  -0.166490 -4.572270 -3.376020
C  -0.180850  3.958400  2.542950
H  -1.263090  3.833460  2.642800
H   0.262930  2.964160  2.645480
H   0.166490  4.572270  3.376020
C  -0.180850  3.958400 -2.542950
H   0.262930  2.964160 -2.645480
H  -1.263090  3.833460 -2.642800
H   0.166490  4.572270 -3.376020
Bq -5.907230  4.086235  1.000000
Bq -5.891762  4.073745  1.000000
Bq -5.876293  4.061256  1.000000
Bq -5.860825  4.048766  1.000000
Bq -5.845357  4.036276  1.000000
Bq -5.829888  4.023786  1.000000
Bq -5.814420  4.011297  1.000000
Bq -5.798952  3.998807  1.000000
Bq -5.783484  3.986317  1.000000
Bq -5.768015  3.973828  1.000000
Bq -5.752547  3.961338  1.000000
Bq -5.737079  3.948848  1.000000
Bq -5.721610  3.936358  1.000000
Bq -5.706142  3.923869  1.000000
Bq -5.690674  3.911379  1.000000
Bq -5.675205  3.898889  1.000000
Bq -5.659737  3.886399  1.000000
Bq -5.644269  3.873910  1.000000
Bq -5.628801  3.861420  1.000000
Bq -5.613332  3.848930  1.000000
Bq -5.597864  3.836441  1.000000
Bq -5.582396  3.823951  1.000000
Bq -5.566927  3.811461  1.000000
Bq -5.551459  3.798971  1.000000
Bq -5.535991  3.786482  1.000000
Bq -5.520522  3.773992  1.000000
Bq -5.505054  3.761502  1.000000
Bq -5.489586  3.749013  1.000000
Bq -5.474117  3.736523  1.000000
Bq -5.458649  3.724033  1.000000
Bq -5.443181  3.711543  1.000000
Bq -5.427713  3.699054  1.000000
Bq -5.412244  3.686564  1.000000
Bq -5.396776  3.674074  1.000000
Bq -5.381308  3.661584  1.000000
Bq -5.365839  3.649095  1.000000
Bq -5.350371  3.636605  1.000000
Bq -5.334903  3.624115  1.000000
Bq -5.319434  3.611626  1.000000
Bq -5.303966  3.599136  1.000000
Bq -5.288498  3.586646  1.000000
Bq -5.273029  3.574156  1.000000
Bq -5.257561  3.561667  1.000000
Bq -5.242093  3.549177  1.000000
Bq -5.226625  3.536687  1.000000
Bq -5.211156  3.524198  1.000000
Bq -5.195688  3.511708  1.000000
Bq -5.180220  3.499218  1.000000
Bq -5.164751  3.486728  1.000000
Bq -5.149283  3.474239  1.000000
Bq -5.133815  3.461749  1.000000
Bq -5.118346  3.449259  1.000000
Bq -5.102878  3.436769  1.000000
Bq -5.087410  3.424280  1.000000
Bq -5.071941  3.411790  1.000000
Bq -5.056473  3.399300  1.000000
Bq -5.041005  3.386811  1.000000
Bq -5.025537  3.374321  1.000000
Bq -5.010068  3.361831  1.000000
Bq -4.994600  3.349341  1.000000
Bq -4.979132  3.336852  1.000000
Bq -4.963623  3.324457  1.000000
Bq -4.948114  3.312061  1.000000
Bq -4.932606  3.299666  1.000000
Bq -4.917097  3.287271  1.000000
Bq -4.901589  3.274876  1.000000
Bq -4.886080  3.262481  1.000000
Bq -4.870571  3.250086  1.000000
Bq -4.855063  3.237691  1.000000
Bq -4.839554  3.225296  1.000000
Bq -4.824046  3.212901  1.000000
Bq -4.808537  3.200505  1.000000
Bq -4.793028  3.188110  1.000000
Bq -4.777520  3.175715  1.000000
Bq -4.762011  3.163320  1.000000
Bq -4.746503  3.150925  1.000000
Bq -4.730994  3.138530  1.000000
Bq -4.715485  3.126135  1.000000
Bq -4.699977  3.113740  1.000000
Bq -4.684468  3.101345  1.000000
Bq -4.668959  3.088949  1.000000
Bq -4.653451  3.076554  1.000000
Bq -4.637942  3.064159  1.000000
Bq -4.622434  3.051764  1.000000
Bq -4.606925  3.039369  1.000000
Bq -4.591416  3.026974  1.000000
Bq -4.575908  3.014579  1.000000
Bq -4.560399  3.002184  1.000000
Bq -4.544891  2.989789  1.000000
Bq -4.529382  2.977393  1.000000
Bq -4.513873  2.964998  1.000000
Bq -4.498365  2.952603  1.000000
Bq -4.482856  2.940208  1.000000
Bq -4.467347  2.927813  1.000000
Bq -4.451839  2.915418  1.000000
Bq -4.436330  2.903023  1.000000
Bq -4.420822  2.890628  1.000000
Bq -4.405313  2.878233  1.000000
Bq -4.389804  2.865837  1.000000
Bq -4.374296  2.853442  1.000000
Bq -4.358787  2.841047  1.000000
Bq -4.343279  2.828652  1.000000
Bq -4.327770  2.816257  1.000000
Bq -4.312261  2.803862  1.000000
Bq -4.296753  2.791467  1.000000
Bq -4.281244  2.779072  1.000000
Bq -4.265736  2.766677  1.000000
Bq -4.250227  2.754281  1.000000
Bq -4.234718  2.741886  1.000000
Bq -4.219210  2.729491  1.000000
Bq -4.203701  2.717096  1.000000
Bq -4.188192  2.704701  1.000000
Bq -4.172684  2.692306  1.000000
Bq -4.157175  2.679911  1.000000
Bq -4.141667  2.667516  1.000000
Bq -4.126158  2.655121  1.000000
Bq -4.110649  2.642725  1.000000
Bq -4.095141  2.630330  1.000000
Bq -4.079632  2.617935  1.000000
Bq -4.064124  2.605540  1.000000
Bq -4.048615  2.593145  1.000000
Bq -4.034544  2.579445  1.000000
Bq -4.020472  2.565745  1.000000
Bq -4.006401  2.552045  1.000000
Bq -3.992329  2.538345  1.000000
Bq -3.978258  2.524645  1.000000
Bq -3.964186  2.510945  1.000000
Bq -3.950115  2.497245  1.000000
Bq -3.936043  2.483545  1.000000
Bq -3.921972  2.469845  1.000000
Bq -3.907901  2.456145  1.000000
Bq -3.893829  2.442445  1.000000
Bq -3.879758  2.428745  1.000000
Bq -3.865686  2.415045  1.000000
Bq -3.851615  2.401345  1.000000
Bq -3.837543  2.387645  1.000000
Bq -3.823472  2.373945  1.000000
Bq -3.809400  2.360245  1.000000
Bq -3.795329  2.346545  1.000000
Bq -3.781257  2.332845  1.000000
Bq -3.767186  2.319145  1.000000
Bq -3.753115  2.305445  1.000000
Bq -3.739043  2.291745  1.000000
Bq -3.724972  2.278045  1.000000
Bq -3.710900  2.264345  1.000000
Bq -3.696829  2.250644  1.000000
Bq -3.682757  2.236944  1.000000
Bq -3.668686  2.223244  1.000000
Bq -3.654614  2.209544  1.000000
Bq -3.640543  2.195844  1.000000
Bq -3.626472  2.182144  1.000000
Bq -3.612400  2.168444  1.000000
Bq -3.598329  2.154744  1.000000
Bq -3.584257  2.141044  1.000000
Bq -3.570186  2.127344  1.000000
Bq -3.556114  2.113644  1.000000
Bq -3.542043  2.099944  1.000000
Bq -3.527971  2.086244  1.000000
Bq -3.513900  2.072544  1.000000
Bq -3.499828  2.058844  1.000000
Bq -3.485757  2.045144  1.000000
Bq -3.471686  2.031444  1.000000
Bq -3.457614  2.017744  1.000000
Bq -3.443543  2.004044  1.000000
Bq -3.429471  1.990344  1.000000
Bq -3.415400  1.976644  1.000000
Bq -3.401328  1.962944  1.000000
Bq -3.387257  1.949244  1.000000
Bq -3.373185  1.935544  1.000000
Bq -3.359114  1.921844  1.000000
Bq -3.339474  1.919335  1.000000
Bq -3.319833  1.916826  1.000000
Bq -3.300193  1.914317  1.000000
Bq -3.280553  1.911808  1.000000
Bq -3.260913  1.909299  1.000000
Bq -3.241272  1.906790  1.000000
Bq -3.221632  1.904281  1.000000
Bq -3.201992  1.901773  1.000000
Bq -3.182351  1.899264  1.000000
Bq -3.162711  1.896755  1.000000
Bq -3.143071  1.894246  1.000000
Bq -3.123430  1.891737  1.000000
Bq -3.103790  1.889228  1.000000
Bq -3.084150  1.886719  1.000000
Bq -3.064510  1.884210  1.000000
Bq -3.044869  1.881701  1.000000
Bq -3.025229  1.879192  1.000000
Bq -3.005589  1.876683  1.000000
Bq -2.985948  1.874174  1.000000
Bq -2.966308  1.871665  1.000000
Bq -2.946668  1.869156  1.000000
Bq -2.927028  1.866647  1.000000
Bq -2.907387  1.864138  1.000000
Bq -2.887747  1.861630  1.000000
Bq -2.868107  1.859121  1.000000
Bq -2.848466  1.856612  1.000000
Bq -2.828826  1.854103  1.000000
Bq -2.809186  1.851594  1.000000
Bq -2.789546  1.849085  1.000000
Bq -2.769905  1.846576  1.000000
Bq -2.750265  1.844067  1.000000
Bq -2.730625  1.841558  1.000000
Bq -2.710984  1.839049  1.000000
Bq -2.691344  1.836540  1.000000
Bq -2.671704  1.834031  1.000000
Bq -2.652064  1.831522  1.000000
Bq -2.632423  1.829013  1.000000
Bq -2.612783  1.826504  1.000000
Bq -2.593143  1.823995  1.000000
Bq -2.573502  1.821487  1.000000
Bq -2.553862  1.818978  1.000000
Bq -2.534222  1.816469  1.000000
Bq -2.514581  1.813960  1.000000
Bq -2.494941  1.811451  1.000000
Bq -2.475301  1.808942  1.000000
Bq -2.455661  1.806433  1.000000
Bq -2.436020  1.803924  1.000000
Bq -2.416380  1.801415  1.000000
Bq -2.397147  1.797413  1.000000
Bq -2.377915  1.793411  1.000000
Bq -2.358682  1.789409  1.000000
Bq -2.339449  1.785406  1.000000
Bq -2.320216  1.781404  1.000000
Bq -2.300984  1.777402  1.000000
Bq -2.281751  1.773400  1.000000
Bq -2.262518  1.769398  1.000000
Bq -2.243285  1.765396  1.000000
Bq -2.224053  1.761394  1.000000
Bq -2.204820  1.757391  1.000000
Bq -2.185587  1.753389  1.000000
Bq -2.166354  1.749387  1.000000
Bq -2.147122  1.745385  1.000000
Bq -2.127889  1.741383  1.000000
Bq -2.108656  1.737381  1.000000
Bq -2.089424  1.733379  1.000000
Bq -2.070191  1.729376  1.000000
Bq -2.050958  1.725374  1.000000
Bq -2.031725  1.721372  1.000000
Bq -2.012493  1.717370  1.000000
Bq -1.993260  1.713368  1.000000
Bq -1.974027  1.709366  1.000000
Bq -1.954794  1.705364  1.000000
Bq -1.935562  1.701361  1.000000
Bq -1.916329  1.697359  1.000000
Bq -1.897096  1.693357  1.000000
Bq -1.877863  1.689355  1.000000
Bq -1.858631  1.685353  1.000000
Bq -1.839398  1.681351  1.000000
Bq -1.820165  1.677349  1.000000
Bq -1.800932  1.673346  1.000000
Bq -1.781700  1.669344  1.000000
Bq -1.762467  1.665342  1.000000
Bq -1.743234  1.661340  1.000000
Bq -1.724002  1.657338  1.000000
Bq -1.704769  1.653336  1.000000
Bq -1.685536  1.649334  1.000000
Bq -1.666303  1.645331  1.000000
Bq -1.647071  1.641329  1.000000
Bq -1.627838  1.637327  1.000000
Bq -1.608605  1.633325  1.000000
Bq -1.589372  1.629323  1.000000
Bq -1.570140  1.625321  1.000000
Bq -1.550907  1.621319  1.000000
Bq -1.531674  1.617316  1.000000
Bq -1.512441  1.613314  1.000000
Bq -1.493209  1.609312  1.000000
Bq -1.473976  1.605310  1.000000
Bq -1.460970  1.590591  1.000000
Bq -1.447965  1.575871  1.000000
Bq -1.434959  1.561152  1.000000
Bq -1.421954  1.546432  1.000000
Bq -1.408948  1.531713  1.000000
Bq -1.395942  1.516993  1.000000
Bq -1.382937  1.502274  1.000000
Bq -1.369931  1.487554  1.000000
Bq -1.356925  1.472835  1.000000
Bq -1.343920  1.458115  1.000000
Bq -1.330914  1.443396  1.000000
Bq -1.317909  1.428676  1.000000
Bq -1.304903  1.413957  1.000000
Bq -1.291897  1.399237  1.000000
Bq -1.278892  1.384518  1.000000
Bq -1.265886  1.369798  1.000000
Bq -1.252880  1.355078  1.000000
Bq -1.239875  1.340359  1.000000
Bq -1.226869  1.325639  1.000000
Bq -1.213864  1.310920  1.000000
Bq -1.200858  1.296201  1.000000
Bq -1.187852  1.281481  1.000000
Bq -1.174847  1.266761  1.000000
Bq -1.161841  1.252042  1.000000
Bq -1.148835  1.237322  1.000000
Bq -1.135830  1.222603  1.000000
Bq -1.122824  1.207883  1.000000
Bq -1.109819  1.193164  1.000000
Bq -1.096813  1.178444  1.000000
Bq -1.083807  1.163725  1.000000
Bq -1.070802  1.149005  1.000000
Bq -1.057796  1.134286  1.000000
Bq -1.044791  1.119566  1.000000
Bq -1.031785  1.104847  1.000000
Bq -1.018779  1.090127  1.000000
Bq -1.005774  1.075408  1.000000
Bq -0.992768  1.060688  1.000000
Bq -0.979762  1.045969  1.000000
Bq -0.966757  1.031249  1.000000
Bq -0.953751  1.016530  1.000000
Bq -0.940746  1.001810  1.000000
Bq -0.927740  0.987091  1.000000
Bq -0.914734  0.972371  1.000000
Bq -0.901729  0.957652  1.000000
Bq -0.888723  0.942932  1.000000
Bq -0.875717  0.928213  1.000000
Bq -0.862712  0.913493  1.000000
Bq -0.849706  0.898774  1.000000
Bq -0.836701  0.884054  1.000000
Bq -0.823695  0.869335  1.000000
Bq -0.809967  0.854846  1.000000
Bq -0.796238  0.840357  1.000000
Bq -0.782510  0.825868  1.000000
Bq -0.768782  0.811379  1.000000
Bq -0.755054  0.796890  1.000000
Bq -0.741325  0.782401  1.000000
Bq -0.727597  0.767913  1.000000
Bq -0.713869  0.753424  1.000000
Bq -0.700141  0.738935  1.000000
Bq -0.686412  0.724446  1.000000
Bq -0.672684  0.709957  1.000000
Bq -0.658956  0.695468  1.000000
Bq -0.645228  0.680979  1.000000
Bq -0.631499  0.666490  1.000000
Bq -0.617771  0.652001  1.000000
Bq -0.604043  0.637512  1.000000
Bq -0.590315  0.623023  1.000000
Bq -0.576587  0.608534  1.000000
Bq -0.562858  0.594046  1.000000
Bq -0.549130  0.579557  1.000000
Bq -0.535402  0.565068  1.000000
Bq -0.521674  0.550579  1.000000
Bq -0.507945  0.536090  1.000000
Bq -0.494217  0.521601  1.000000
Bq -0.480489  0.507112  1.000000
Bq -0.466760  0.492623  1.000000
Bq -0.453032  0.478134  1.000000
Bq -0.439304  0.463645  1.000000
Bq -0.425576  0.449156  1.000000
Bq -0.411847  0.434667  1.000000
Bq -0.398119  0.420179  1.000000
Bq -0.384391  0.405690  1.000000
Bq -0.370663  0.391201  1.000000
Bq -0.356934  0.376712  1.000000
Bq -0.343206  0.362223  1.000000
Bq -0.329478  0.347734  1.000000
Bq -0.315750  0.333245  1.000000
Bq -0.302022  0.318756  1.000000
Bq -0.288293  0.304267  1.000000
Bq -0.274565  0.289778  1.000000
Bq -0.260837  0.275289  1.000000
Bq -0.247109  0.260800  1.000000
Bq -0.233380  0.246312  1.000000
Bq -0.219652  0.231823  1.000000
Bq -0.205924  0.217334  1.000000
Bq -0.192195  0.202845  1.000000
Bq -0.178467  0.188356  1.000000
Bq -0.164739  0.173867  1.000000
Bq -0.151011  0.159378  1.000000
Bq -0.137282  0.144889  1.000000
Bq -0.123554  0.130400  1.000000
Bq -0.109826  0.115911  1.000000
Bq -0.096098  0.101422  1.000000
Bq -0.082369  0.086933  1.000000
Bq -0.068641  0.072445  1.000000
Bq -0.054913  0.057956  1.000000
Bq -0.041185  0.043467  1.000000
Bq -0.027456  0.028978  1.000000
Bq -0.013728  0.014489  1.000000
Bq  0.000000  0.000000  1.000000
Bq  0.013728 -0.014489  1.000000
Bq  0.027456 -0.028978  1.000000
Bq  0.041185 -0.043467  1.000000
Bq  0.054913 -0.057956  1.000000
Bq  0.068641 -0.072445  1.000000
Bq  0.082369 -0.086933  1.000000
Bq  0.096098 -0.101422  1.000000
Bq  0.109826 -0.115911  1.000000
Bq  0.123554 -0.130400  1.000000
Bq  0.137282 -0.144889  1.000000
Bq  0.151011 -0.159378  1.000000
Bq  0.164739 -0.173867  1.000000
Bq  0.178467 -0.188356  1.000000
Bq  0.192195 -0.202845  1.000000
Bq  0.205924 -0.217334  1.000000
Bq  0.219652 -0.231823  1.000000
Bq  0.233380 -0.246312  1.000000
Bq  0.247108 -0.260800  1.000000
Bq  0.260837 -0.275289  1.000000
Bq  0.274565 -0.289778  1.000000
Bq  0.288293 -0.304267  1.000000
Bq  0.302021 -0.318756  1.000000
Bq  0.315750 -0.333245  1.000000
Bq  0.329478 -0.347734  1.000000
Bq  0.343206 -0.362223  1.000000
Bq  0.356934 -0.376712  1.000000
Bq  0.370663 -0.391201  1.000000
Bq  0.384391 -0.405690  1.000000
Bq  0.398119 -0.420179  1.000000
Bq  0.411847 -0.434667  1.000000
Bq  0.425576 -0.449156  1.000000
Bq  0.439304 -0.463645  1.000000
Bq  0.453032 -0.478134  1.000000
Bq  0.466760 -0.492623  1.000000
Bq  0.480489 -0.507112  1.000000
Bq  0.494217 -0.521601  1.000000
Bq  0.507945 -0.536090  1.000000
Bq  0.521673 -0.550579  1.000000
Bq  0.535402 -0.565068  1.000000
Bq  0.549130 -0.579557  1.000000
Bq  0.562858 -0.594046  1.000000
Bq  0.576586 -0.608534  1.000000
Bq  0.590315 -0.623023  1.000000
Bq  0.604043 -0.637512  1.000000
Bq  0.617771 -0.652001  1.000000
Bq  0.631499 -0.666490  1.000000
Bq  0.645228 -0.680979  1.000000
Bq  0.658956 -0.695468  1.000000
Bq  0.672684 -0.709957  1.000000
Bq  0.686412 -0.724446  1.000000
Bq  0.700141 -0.738935  1.000000
Bq  0.713869 -0.753424  1.000000
Bq  0.727597 -0.767913  1.000000
Bq  0.741325 -0.782401  1.000000
Bq  0.755054 -0.796890  1.000000
Bq  0.768782 -0.811379  1.000000
Bq  0.782510 -0.825868  1.000000
Bq  0.796238 -0.840357  1.000000
Bq  0.809967 -0.854846  1.000000
Bq  0.823695 -0.869335  1.000000
Bq  0.836701 -0.884054  1.000000
Bq  0.849706 -0.898774  1.000000
Bq  0.862712 -0.913493  1.000000
Bq  0.875717 -0.928213  1.000000
Bq  0.888723 -0.942932  1.000000
Bq  0.901729 -0.957652  1.000000
Bq  0.914734 -0.972371  1.000000
Bq  0.927740 -0.987091  1.000000
Bq  0.940746 -1.001810  1.000000
Bq  0.953751 -1.016530  1.000000
Bq  0.966757 -1.031249  1.000000
Bq  0.979762 -1.045969  1.000000
Bq  0.992768 -1.060688  1.000000
Bq  1.005774 -1.075408  1.000000
Bq  1.018779 -1.090127  1.000000
Bq  1.031785 -1.104847  1.000000
Bq  1.044791 -1.119566  1.000000
Bq  1.057796 -1.134286  1.000000
Bq  1.070802 -1.149005  1.000000
Bq  1.083807 -1.163725  1.000000
Bq  1.096813 -1.178444  1.000000
Bq  1.109819 -1.193164  1.000000
Bq  1.122824 -1.207883  1.000000
Bq  1.135830 -1.222603  1.000000
Bq  1.148835 -1.237322  1.000000
Bq  1.161841 -1.252042  1.000000
Bq  1.174847 -1.266762  1.000000
Bq  1.187852 -1.281481  1.000000
Bq  1.200858 -1.296200  1.000000
Bq  1.213864 -1.310920  1.000000
Bq  1.226869 -1.325639  1.000000
Bq  1.239875 -1.340359  1.000000
Bq  1.252880 -1.355079  1.000000
Bq  1.265886 -1.369798  1.000000
Bq  1.278892 -1.384517  1.000000
Bq  1.291897 -1.399237  1.000000
Bq  1.304903 -1.413956  1.000000
Bq  1.317909 -1.428676  1.000000
Bq  1.330914 -1.443396  1.000000
Bq  1.343920 -1.458115  1.000000
Bq  1.356925 -1.472834  1.000000
Bq  1.369931 -1.487554  1.000000
Bq  1.382937 -1.502274  1.000000
Bq  1.395942 -1.516993  1.000000
Bq  1.408948 -1.531713  1.000000
Bq  1.421954 -1.546432  1.000000
Bq  1.434959 -1.561152  1.000000
Bq  1.447965 -1.575871  1.000000
Bq  1.460970 -1.590591  1.000000
Bq  1.473976 -1.605310  1.000000
Bq  1.493209 -1.609312  1.000000
Bq  1.512441 -1.613314  1.000000
Bq  1.531674 -1.617316  1.000000
Bq  1.550907 -1.621319  1.000000
Bq  1.570140 -1.625321  1.000000
Bq  1.589372 -1.629323  1.000000
Bq  1.608605 -1.633325  1.000000
Bq  1.627838 -1.637327  1.000000
Bq  1.647071 -1.641329  1.000000
Bq  1.666303 -1.645331  1.000000
Bq  1.685536 -1.649334  1.000000
Bq  1.704769 -1.653336  1.000000
Bq  1.724002 -1.657338  1.000000
Bq  1.743234 -1.661340  1.000000
Bq  1.762467 -1.665342  1.000000
Bq  1.781700 -1.669344  1.000000
Bq  1.800932 -1.673346  1.000000
Bq  1.820165 -1.677349  1.000000
Bq  1.839398 -1.681351  1.000000
Bq  1.858631 -1.685353  1.000000
Bq  1.877863 -1.689355  1.000000
Bq  1.897096 -1.693357  1.000000
Bq  1.916329 -1.697359  1.000000
Bq  1.935562 -1.701361  1.000000
Bq  1.954794 -1.705364  1.000000
Bq  1.974027 -1.709366  1.000000
Bq  1.993260 -1.713368  1.000000
Bq  2.012493 -1.717370  1.000000
Bq  2.031725 -1.721372  1.000000
Bq  2.050958 -1.725374  1.000000
Bq  2.070191 -1.729376  1.000000
Bq  2.089424 -1.733379  1.000000
Bq  2.108656 -1.737381  1.000000
Bq  2.127889 -1.741383  1.000000
Bq  2.147122 -1.745385  1.000000
Bq  2.166354 -1.749387  1.000000
Bq  2.185587 -1.753389  1.000000
Bq  2.204820 -1.757391  1.000000
Bq  2.224053 -1.761394  1.000000
Bq  2.243285 -1.765396  1.000000
Bq  2.262518 -1.769398  1.000000
Bq  2.281751 -1.773400  1.000000
Bq  2.300984 -1.777402  1.000000
Bq  2.320216 -1.781404  1.000000
Bq  2.339449 -1.785406  1.000000
Bq  2.358682 -1.789409  1.000000
Bq  2.377915 -1.793411  1.000000
Bq  2.397147 -1.797413  1.000000
Bq  2.416380 -1.801415  1.000000
Bq  2.436020 -1.803924  1.000000
Bq  2.455661 -1.806433  1.000000
Bq  2.475301 -1.808942  1.000000
Bq  2.494941 -1.811451  1.000000
Bq  2.514581 -1.813960  1.000000
Bq  2.534222 -1.816469  1.000000
Bq  2.553862 -1.818978  1.000000
Bq  2.573502 -1.821487  1.000000
Bq  2.593143 -1.823995  1.000000
Bq  2.612783 -1.826504  1.000000
Bq  2.632423 -1.829013  1.000000
Bq  2.652064 -1.831522  1.000000
Bq  2.671704 -1.834031  1.000000
Bq  2.691344 -1.836540  1.000000
Bq  2.710984 -1.839049  1.000000
Bq  2.730625 -1.841558  1.000000
Bq  2.750265 -1.844067  1.000000
Bq  2.769905 -1.846576  1.000000
Bq  2.789546 -1.849085  1.000000
Bq  2.809186 -1.851594  1.000000
Bq  2.828826 -1.854103  1.000000
Bq  2.848466 -1.856612  1.000000
Bq  2.868107 -1.859121  1.000000
Bq  2.887747 -1.861630  1.000000
Bq  2.907387 -1.864138  1.000000
Bq  2.927028 -1.866647  1.000000
Bq  2.946668 -1.869156  1.000000
Bq  2.966308 -1.871665  1.000000
Bq  2.985948 -1.874174  1.000000
Bq  3.005589 -1.876683  1.000000
Bq  3.025229 -1.879192  1.000000
Bq  3.044869 -1.881701  1.000000
Bq  3.064510 -1.884210  1.000000
Bq  3.084150 -1.886719  1.000000
Bq  3.103790 -1.889228  1.000000
Bq  3.123430 -1.891737  1.000000
Bq  3.143071 -1.894246  1.000000
Bq  3.162711 -1.896755  1.000000
Bq  3.182351 -1.899264  1.000000
Bq  3.201992 -1.901773  1.000000
Bq  3.221632 -1.904281  1.000000
Bq  3.241272 -1.906790  1.000000
Bq  3.260913 -1.909299  1.000000
Bq  3.280553 -1.911808  1.000000
Bq  3.300193 -1.914317  1.000000
Bq  3.319833 -1.916826  1.000000
Bq  3.339474 -1.919335  1.000000
Bq  3.359114 -1.921844  1.000000
Bq  3.373185 -1.935544  1.000000
Bq  3.387257 -1.949244  1.000000
Bq  3.401328 -1.962944  1.000000
Bq  3.415400 -1.976644  1.000000
Bq  3.429471 -1.990344  1.000000
Bq  3.443543 -2.004044  1.000000
Bq  3.457614 -2.017744  1.000000
Bq  3.471686 -2.031444  1.000000
Bq  3.485757 -2.045144  1.000000
Bq  3.499828 -2.058844  1.000000
Bq  3.513900 -2.072544  1.000000
Bq  3.527971 -2.086244  1.000000
Bq  3.542043 -2.099944  1.000000
Bq  3.556114 -2.113644  1.000000
Bq  3.570186 -2.127344  1.000000
Bq  3.584257 -2.141044  1.000000
Bq  3.598329 -2.154744  1.000000
Bq  3.612400 -2.168444  1.000000
Bq  3.626472 -2.182144  1.000000
Bq  3.640543 -2.195844  1.000000
Bq  3.654614 -2.209544  1.000000
Bq  3.668686 -2.223244  1.000000
Bq  3.682757 -2.236944  1.000000
Bq  3.696829 -2.250644  1.000000
Bq  3.710900 -2.264345  1.000000
Bq  3.724972 -2.278045  1.000000
Bq  3.739043 -2.291745  1.000000
Bq  3.753115 -2.305445  1.000000
Bq  3.767186 -2.319145  1.000000
Bq  3.781257 -2.332845  1.000000
Bq  3.795329 -2.346545  1.000000
Bq  3.809400 -2.360245  1.000000
Bq  3.823472 -2.373945  1.000000
Bq  3.837543 -2.387645  1.000000
Bq  3.851615 -2.401345  1.000000
Bq  3.865686 -2.415045  1.000000
Bq  3.879758 -2.428745  1.000000
Bq  3.893829 -2.442445  1.000000
Bq  3.907901 -2.456145  1.000000
Bq  3.921972 -2.469845  1.000000
Bq  3.936043 -2.483545  1.000000
Bq  3.950115 -2.497245  1.000000
Bq  3.964186 -2.510945  1.000000
Bq  3.978258 -2.524645  1.000000
Bq  3.992329 -2.538345  1.000000
Bq  4.006401 -2.552045  1.000000
Bq  4.020472 -2.565745  1.000000
Bq  4.034544 -2.579445  1.000000
Bq  4.048615 -2.593145  1.000000
Bq  4.064124 -2.605540  1.000000
Bq  4.079632 -2.617935  1.000000
Bq  4.095141 -2.630330  1.000000
Bq  4.110649 -2.642725  1.000000
Bq  4.126158 -2.655121  1.000000
Bq  4.141667 -2.667516  1.000000
Bq  4.157175 -2.679911  1.000000
Bq  4.172684 -2.692306  1.000000
Bq  4.188192 -2.704701  1.000000
Bq  4.203701 -2.717096  1.000000
Bq  4.219210 -2.729491  1.000000
Bq  4.234718 -2.741886  1.000000
Bq  4.250227 -2.754281  1.000000
Bq  4.265736 -2.766677  1.000000
Bq  4.281244 -2.779072  1.000000
Bq  4.296753 -2.791467  1.000000
Bq  4.312261 -2.803862  1.000000
Bq  4.327770 -2.816257  1.000000
Bq  4.343279 -2.828652  1.000000
Bq  4.358787 -2.841047  1.000000
Bq  4.374296 -2.853442  1.000000
Bq  4.389804 -2.865837  1.000000
Bq  4.405313 -2.878233  1.000000
Bq  4.420822 -2.890628  1.000000
Bq  4.436330 -2.903023  1.000000
Bq  4.451839 -2.915418  1.000000
Bq  4.467347 -2.927813  1.000000
Bq  4.482856 -2.940208  1.000000
Bq  4.498365 -2.952603  1.000000
Bq  4.513873 -2.964998  1.000000
Bq  4.529382 -2.977393  1.000000
Bq  4.544891 -2.989789  1.000000
Bq  4.560399 -3.002184  1.000000
Bq  4.575908 -3.014579  1.000000
Bq  4.591416 -3.026974  1.000000
Bq  4.606925 -3.039369  1.000000
Bq  4.622434 -3.051764  1.000000
Bq  4.637942 -3.064159  1.000000
Bq  4.653451 -3.076554  1.000000
Bq  4.668959 -3.088949  1.000000
Bq  4.684468 -3.101345  1.000000
Bq  4.699977 -3.113740  1.000000
Bq  4.715485 -3.126135  1.000000
Bq  4.730994 -3.138530  1.000000
Bq  4.746503 -3.150925  1.000000
Bq  4.762011 -3.163320  1.000000
Bq  4.777520 -3.175715  1.000000
Bq  4.793028 -3.188110  1.000000
Bq  4.808537 -3.200505  1.000000
Bq  4.824046 -3.212901  1.000000
Bq  4.839554 -3.225296  1.000000
Bq  4.855063 -3.237691  1.000000
Bq  4.870571 -3.250086  1.000000
Bq  4.886080 -3.262481  1.000000
Bq  4.901589 -3.274876  1.000000
Bq  4.917097 -3.287271  1.000000
Bq  4.932606 -3.299666  1.000000
Bq  4.948114 -3.312061  1.000000
Bq  4.963623 -3.324457  1.000000
Bq  4.979132 -3.336852  1.000000
Bq  4.994600 -3.349341  1.000000
Bq  5.010068 -3.361831  1.000000
Bq  5.025537 -3.374321  1.000000
Bq  5.041005 -3.386811  1.000000
Bq  5.056473 -3.399300  1.000000
Bq  5.071941 -3.411790  1.000000
Bq  5.087410 -3.424280  1.000000
Bq  5.102878 -3.436769  1.000000
Bq  5.118346 -3.449259  1.000000
Bq  5.133815 -3.461749  1.000000
Bq  5.149283 -3.474239  1.000000
Bq  5.164751 -3.486728  1.000000
Bq  5.180220 -3.499218  1.000000
Bq  5.195688 -3.511708  1.000000
Bq  5.211156 -3.524198  1.000000
Bq  5.226625 -3.536687  1.000000
Bq  5.242093 -3.549177  1.000000
Bq  5.257561 -3.561667  1.000000
Bq  5.273029 -3.574156  1.000000
Bq  5.288498 -3.586646  1.000000
Bq  5.303966 -3.599136  1.000000
Bq  5.319434 -3.611626  1.000000
Bq  5.334903 -3.624115  1.000000
Bq  5.350371 -3.636605  1.000000
Bq  5.365839 -3.649095  1.000000
Bq  5.381308 -3.661584  1.000000
Bq  5.396776 -3.674074  1.000000
Bq  5.412244 -3.686564  1.000000
Bq  5.427713 -3.699054  1.000000
Bq  5.443181 -3.711543  1.000000
Bq  5.458649 -3.724033  1.000000
Bq  5.474117 -3.736523  1.000000
Bq  5.489586 -3.749013  1.000000
Bq  5.505054 -3.761502  1.000000
Bq  5.520522 -3.773992  1.000000
Bq  5.535991 -3.786482  1.000000
Bq  5.551459 -3.798971  1.000000
Bq  5.566927 -3.811461  1.000000
Bq  5.582396 -3.823951  1.000000
Bq  5.597864 -3.836441  1.000000
Bq  5.613332 -3.848930  1.000000
Bq  5.628801 -3.861420  1.000000
Bq  5.644269 -3.873910  1.000000
Bq  5.659737 -3.886399  1.000000
Bq  5.675205 -3.898889  1.000000
Bq  5.690674 -3.911379  1.000000
Bq  5.706142 -3.923869  1.000000
Bq  5.721610 -3.936358  1.000000
Bq  5.737079 -3.948848  1.000000
Bq  5.752547 -3.961338  1.000000
Bq  5.768015 -3.973828  1.000000
Bq  5.783484 -3.986317  1.000000
Bq  5.798952 -3.998807  1.000000
Bq  5.814420 -4.011297  1.000000
Bq  5.829888 -4.023786  1.000000
Bq  5.845357 -4.036276  1.000000
Bq  5.860825 -4.048766  1.000000
Bq  5.876293 -4.061256  1.000000
Bq  5.891762 -4.073745  1.000000
Bq  5.907230 -4.086235  1.000000
