389
Molecule with interpolated Bq points
H   0.000000  2.503900 -0.000000
H  -4.454420  0.000000  0.000000
H  -0.000000 -2.503900 -0.000000
H   4.454420 -0.000000  0.000000
C   0.000000  1.422030 -0.000000
C  -2.579050  1.160360  0.000000
C   1.210700 -0.723770  0.000000
C   1.210700  0.723770  0.000000
C  -1.210700  0.723770  0.000000
C  -1.210700 -0.723770 -0.000000
C  -0.000000 -1.422030 -0.000000
C   2.579050 -1.160360  0.000000
C   2.579050  1.160360  0.000000
C  -2.579050 -1.160360 -0.000000
C  -3.376690  0.000000  0.000000
C   3.376690 -0.000000  0.000000
C   3.104060  2.588410  0.000000
C   3.104060 -2.588410 -0.000000
C  -3.104060  2.588410 -0.000000
C  -3.104060 -2.588410  0.000000
C   4.645540  2.616010  0.000000
H   4.996240  3.651860  0.000000
H   5.057260  2.125480  0.885950
H   5.057260  2.125480 -0.885950
C   4.645540 -2.616010 -0.000000
H   5.057260 -2.125480  0.885950
H   4.996240 -3.651860 -0.000000
H   5.057260 -2.125480 -0.885950
C  -4.645540  2.616010 -0.000000
H  -5.057260  2.125480  0.885950
H  -4.996240  3.651860 -0.000000
H  -5.057260  2.125480 -0.885950
C  -4.645540 -2.616010  0.000000
H  -4.996240 -3.651860  0.000000
H  -5.057260 -2.125480  0.885950
H  -5.057260 -2.125480 -0.885950
C   2.616700  3.335250 -1.266680
H   2.959280  2.826080 -2.171390
H   1.528860  3.398940 -1.314300
H   3.015990  4.354520 -1.277900
C   2.616700  3.335250  1.266680
H   1.528860  3.398940  1.314300
H   2.959280  2.826080  2.171390
H   3.015990  4.354520  1.277900
C   2.616700 -3.335250  1.266680
H   1.528860 -3.398940  1.314300
H   3.015990 -4.354520  1.277900
H   2.959280 -2.826080  2.171390
C   2.616700 -3.335250 -1.266680
H   1.528860 -3.398940 -1.314300
H   2.959280 -2.826080 -2.171390
H   3.015990 -4.354520 -1.277900
C  -2.616700  3.335250  1.266680
H  -2.959280  2.826080  2.171390
H  -1.528860  3.398940  1.314300
H  -3.015990  4.354520  1.277900
C  -2.616700  3.335250 -1.266680
H  -1.528860  3.398940 -1.314300
H  -2.959280  2.826080 -2.171390
H  -3.015990  4.354520 -1.277900
C  -2.616700 -3.335250 -1.266680
H  -2.959280 -2.826080 -2.171390
H  -1.528860 -3.398940 -1.314300
H  -3.015990 -4.354520 -1.277900
C  -2.616700 -3.335250  1.266680
H  -1.528860 -3.398940  1.314300
H  -2.959280 -2.826080  2.171390
H  -3.015990 -4.354520  1.277900
Bq -2.977870 -0.580180 -1.000000
Bq -2.961816 -0.568340 -1.000000
Bq -2.945763 -0.556499 -1.000000
Bq -2.929709 -0.544659 -1.000000
Bq -2.913655 -0.532818 -1.000000
Bq -2.897601 -0.520978 -1.000000
Bq -2.881548 -0.509138 -1.000000
Bq -2.865494 -0.497297 -1.000000
Bq -2.849440 -0.485457 -1.000000
Bq -2.833387 -0.473616 -1.000000
Bq -2.817333 -0.461776 -1.000000
Bq -2.801279 -0.449936 -1.000000
Bq -2.785225 -0.438095 -1.000000
Bq -2.769172 -0.426255 -1.000000
Bq -2.753118 -0.414414 -1.000000
Bq -2.737064 -0.402574 -1.000000
Bq -2.721011 -0.390733 -1.000000
Bq -2.704957 -0.378893 -1.000000
Bq -2.688903 -0.367053 -1.000000
Bq -2.672849 -0.355212 -1.000000
Bq -2.656796 -0.343372 -1.000000
Bq -2.640742 -0.331531 -1.000000
Bq -2.624688 -0.319691 -1.000000
Bq -2.608635 -0.307851 -1.000000
Bq -2.592581 -0.296010 -1.000000
Bq -2.576527 -0.284170 -1.000000
Bq -2.560473 -0.272329 -1.000000
Bq -2.544420 -0.260489 -1.000000
Bq -2.528366 -0.248649 -1.000000
Bq -2.512312 -0.236808 -1.000000
Bq -2.496259 -0.224968 -1.000000
Bq -2.480205 -0.213127 -1.000000
Bq -2.464151 -0.201287 -1.000000
Bq -2.448097 -0.189447 -1.000000
Bq -2.432044 -0.177606 -1.000000
Bq -2.415990 -0.165766 -1.000000
Bq -2.399936 -0.153925 -1.000000
Bq -2.383883 -0.142085 -1.000000
Bq -2.367829 -0.130244 -1.000000
Bq -2.351775 -0.118404 -1.000000
Bq -2.335721 -0.106564 -1.000000
Bq -2.319668 -0.094723 -1.000000
Bq -2.303614 -0.082883 -1.000000
Bq -2.287560 -0.071042 -1.000000
Bq -2.271507 -0.059202 -1.000000
Bq -2.255453 -0.047362 -1.000000
Bq -2.239399 -0.035521 -1.000000
Bq -2.223345 -0.023681 -1.000000
Bq -2.207292 -0.011840 -1.000000
Bq -2.191238  0.000000 -1.000000
Bq -2.171627  0.000000 -1.000000
Bq -2.152016  0.000000 -1.000000
Bq -2.132406  0.000000 -1.000000
Bq -2.112795  0.000000 -1.000000
Bq -2.093184  0.000000 -1.000000
Bq -2.073573  0.000000 -1.000000
Bq -2.053963  0.000000 -1.000000
Bq -2.034352  0.000000 -1.000000
Bq -2.014741  0.000000 -1.000000
Bq -1.995130  0.000000 -1.000000
Bq -1.975520  0.000000 -1.000000
Bq -1.955909  0.000000 -1.000000
Bq -1.936298  0.000000 -1.000000
Bq -1.916687  0.000000 -1.000000
Bq -1.897077  0.000000 -1.000000
Bq -1.877466  0.000000 -1.000000
Bq -1.857855  0.000000 -1.000000
Bq -1.838244  0.000000 -1.000000
Bq -1.818634  0.000000 -1.000000
Bq -1.799023  0.000000 -1.000000
Bq -1.779412  0.000000 -1.000000
Bq -1.759801  0.000000 -1.000000
Bq -1.740191  0.000000 -1.000000
Bq -1.720580  0.000000 -1.000000
Bq -1.700969  0.000000 -1.000000
Bq -1.681358  0.000000 -1.000000
Bq -1.661747  0.000000 -1.000000
Bq -1.642137  0.000000 -1.000000
Bq -1.622526  0.000000 -1.000000
Bq -1.602915  0.000000 -1.000000
Bq -1.583304  0.000000 -1.000000
Bq -1.563694  0.000000 -1.000000
Bq -1.544083  0.000000 -1.000000
Bq -1.524472  0.000000 -1.000000
Bq -1.504861  0.000000 -1.000000
Bq -1.485251  0.000000 -1.000000
Bq -1.465640  0.000000 -1.000000
Bq -1.446029  0.000000 -1.000000
Bq -1.426418  0.000000 -1.000000
Bq -1.406808  0.000000 -1.000000
Bq -1.387197  0.000000 -1.000000
Bq -1.367586  0.000000 -1.000000
Bq -1.347975  0.000000 -1.000000
Bq -1.328365  0.000000 -1.000000
Bq -1.308754  0.000000 -1.000000
Bq -1.289143  0.000000 -1.000000
Bq -1.269532  0.000000 -1.000000
Bq -1.249922  0.000000 -1.000000
Bq -1.230311  0.000000 -1.000000
Bq -1.210700  0.000000 -1.000000
Bq -1.190852  0.000000 -1.000000
Bq -1.171005  0.000000 -1.000000
Bq -1.151157  0.000000 -1.000000
Bq -1.131310  0.000000 -1.000000
Bq -1.111462  0.000000 -1.000000
Bq -1.091615  0.000000 -1.000000
Bq -1.071767  0.000000 -1.000000
Bq -1.051920  0.000000 -1.000000
Bq -1.032072  0.000000 -1.000000
Bq -1.012225  0.000000 -1.000000
Bq -0.992377  0.000000 -1.000000
Bq -0.972530  0.000000 -1.000000
Bq -0.952682  0.000000 -1.000000
Bq -0.932834  0.000000 -1.000000
Bq -0.912987  0.000000 -1.000000
Bq -0.893139  0.000000 -1.000000
Bq -0.873292  0.000000 -1.000000
Bq -0.853444  0.000000 -1.000000
Bq -0.833597  0.000000 -1.000000
Bq -0.813749  0.000000 -1.000000
Bq -0.793902  0.000000 -1.000000
Bq -0.774054  0.000000 -1.000000
Bq -0.754207  0.000000 -1.000000
Bq -0.734359  0.000000 -1.000000
Bq -0.714511  0.000000 -1.000000
Bq -0.694664  0.000000 -1.000000
Bq -0.674816  0.000000 -1.000000
Bq -0.654969  0.000000 -1.000000
Bq -0.635121  0.000000 -1.000000
Bq -0.615274  0.000000 -1.000000
Bq -0.595426  0.000000 -1.000000
Bq -0.575579  0.000000 -1.000000
Bq -0.555731  0.000000 -1.000000
Bq -0.535884  0.000000 -1.000000
Bq -0.516036  0.000000 -1.000000
Bq -0.496189  0.000000 -1.000000
Bq -0.476341  0.000000 -1.000000
Bq -0.456493  0.000000 -1.000000
Bq -0.436646  0.000000 -1.000000
Bq -0.416798  0.000000 -1.000000
Bq -0.396951  0.000000 -1.000000
Bq -0.377103  0.000000 -1.000000
Bq -0.357256  0.000000 -1.000000
Bq -0.337408  0.000000 -1.000000
Bq -0.317561  0.000000 -1.000000
Bq -0.297713  0.000000 -1.000000
Bq -0.277866  0.000000 -1.000000
Bq -0.258018  0.000000 -1.000000
Bq -0.238170  0.000000 -1.000000
Bq -0.218323  0.000000 -1.000000
Bq -0.198475  0.000000 -1.000000
Bq -0.178628  0.000000 -1.000000
Bq -0.158780  0.000000 -1.000000
Bq -0.138933  0.000000 -1.000000
Bq -0.119085  0.000000 -1.000000
Bq -0.099238  0.000000 -1.000000
Bq -0.079390  0.000000 -1.000000
Bq -0.059543  0.000000 -1.000000
Bq -0.039695  0.000000 -1.000000
Bq -0.019848  0.000000 -1.000000
Bq  0.000000  0.000000 -1.000000
Bq  0.019848  0.000000 -1.000000
Bq  0.039695  0.000000 -1.000000
Bq  0.059543  0.000000 -1.000000
Bq  0.079390  0.000000 -1.000000
Bq  0.099238  0.000000 -1.000000
Bq  0.119085  0.000000 -1.000000
Bq  0.138933  0.000000 -1.000000
Bq  0.158780  0.000000 -1.000000
Bq  0.178628  0.000000 -1.000000
Bq  0.198475  0.000000 -1.000000
Bq  0.218323  0.000000 -1.000000
Bq  0.238170  0.000000 -1.000000
Bq  0.258018  0.000000 -1.000000
Bq  0.277866  0.000000 -1.000000
Bq  0.297713  0.000000 -1.000000
Bq  0.317561  0.000000 -1.000000
Bq  0.337408  0.000000 -1.000000
Bq  0.357256  0.000000 -1.000000
Bq  0.377103  0.000000 -1.000000
Bq  0.396951  0.000000 -1.000000
Bq  0.416798  0.000000 -1.000000
Bq  0.436646  0.000000 -1.000000
Bq  0.456493  0.000000 -1.000000
Bq  0.476341  0.000000 -1.000000
Bq  0.496189  0.000000 -1.000000
Bq  0.516036  0.000000 -1.000000
Bq  0.535884  0.000000 -1.000000
Bq  0.555731  0.000000 -1.000000
Bq  0.575579  0.000000 -1.000000
Bq  0.595426  0.000000 -1.000000
Bq  0.615274  0.000000 -1.000000
Bq  0.635121  0.000000 -1.000000
Bq  0.654969  0.000000 -1.000000
Bq  0.674816  0.000000 -1.000000
Bq  0.694664  0.000000 -1.000000
Bq  0.714511  0.000000 -1.000000
Bq  0.734359  0.000000 -1.000000
Bq  0.754207  0.000000 -1.000000
Bq  0.774054  0.000000 -1.000000
Bq  0.793902  0.000000 -1.000000
Bq  0.813749  0.000000 -1.000000
Bq  0.833597  0.000000 -1.000000
Bq  0.853444  0.000000 -1.000000
Bq  0.873292  0.000000 -1.000000
Bq  0.893139  0.000000 -1.000000
Bq  0.912987  0.000000 -1.000000
Bq  0.932834  0.000000 -1.000000
Bq  0.952682  0.000000 -1.000000
Bq  0.972530  0.000000 -1.000000
Bq  0.992377  0.000000 -1.000000
Bq  1.012225  0.000000 -1.000000
Bq  1.032072  0.000000 -1.000000
Bq  1.051920  0.000000 -1.000000
Bq  1.071767  0.000000 -1.000000
Bq  1.091615  0.000000 -1.000000
Bq  1.111462  0.000000 -1.000000
Bq  1.131310  0.000000 -1.000000
Bq  1.151157  0.000000 -1.000000
Bq  1.171005  0.000000 -1.000000
Bq  1.190852  0.000000 -1.000000
Bq  1.210700  0.000000 -1.000000
Bq  1.230311  0.000000 -1.000000
Bq  1.249922  0.000000 -1.000000
Bq  1.269532  0.000000 -1.000000
Bq  1.289143  0.000000 -1.000000
Bq  1.308754  0.000000 -1.000000
Bq  1.328365  0.000000 -1.000000
Bq  1.347975  0.000000 -1.000000
Bq  1.367586  0.000000 -1.000000
Bq  1.387197  0.000000 -1.000000
Bq  1.406808  0.000000 -1.000000
Bq  1.426418  0.000000 -1.000000
Bq  1.446029  0.000000 -1.000000
Bq  1.465640  0.000000 -1.000000
Bq  1.485251  0.000000 -1.000000
Bq  1.504861  0.000000 -1.000000
Bq  1.524472  0.000000 -1.000000
Bq  1.544083  0.000000 -1.000000
Bq  1.563694  0.000000 -1.000000
Bq  1.583304  0.000000 -1.000000
Bq  1.602915  0.000000 -1.000000
Bq  1.622526  0.000000 -1.000000
Bq  1.642137  0.000000 -1.000000
Bq  1.661747  0.000000 -1.000000
Bq  1.681358  0.000000 -1.000000
Bq  1.700969  0.000000 -1.000000
Bq  1.720580  0.000000 -1.000000
Bq  1.740191  0.000000 -1.000000
Bq  1.759801  0.000000 -1.000000
Bq  1.779412  0.000000 -1.000000
Bq  1.799023  0.000000 -1.000000
Bq  1.818634  0.000000 -1.000000
Bq  1.838244  0.000000 -1.000000
Bq  1.857855  0.000000 -1.000000
Bq  1.877466  0.000000 -1.000000
Bq  1.897077  0.000000 -1.000000
Bq  1.916687  0.000000 -1.000000
Bq  1.936298  0.000000 -1.000000
Bq  1.955909  0.000000 -1.000000
Bq  1.975520  0.000000 -1.000000
Bq  1.995130  0.000000 -1.000000
Bq  2.014741  0.000000 -1.000000
Bq  2.034352  0.000000 -1.000000
Bq  2.053963  0.000000 -1.000000
Bq  2.073573  0.000000 -1.000000
Bq  2.093184  0.000000 -1.000000
Bq  2.112795  0.000000 -1.000000
Bq  2.132406  0.000000 -1.000000
Bq  2.152016  0.000000 -1.000000
Bq  2.171627  0.000000 -1.000000
Bq  2.191238  0.000000 -1.000000
Bq  2.207292  0.011840 -1.000000
Bq  2.223345  0.023681 -1.000000
Bq  2.239399  0.035521 -1.000000
Bq  2.255453  0.047362 -1.000000
Bq  2.271507  0.059202 -1.000000
Bq  2.287560  0.071042 -1.000000
Bq  2.303614  0.082883 -1.000000
Bq  2.319668  0.094723 -1.000000
Bq  2.335721  0.106564 -1.000000
Bq  2.351775  0.118404 -1.000000
Bq  2.367829  0.130244 -1.000000
Bq  2.383883  0.142085 -1.000000
Bq  2.399936  0.153925 -1.000000
Bq  2.415990  0.165766 -1.000000
Bq  2.432044  0.177606 -1.000000
Bq  2.448097  0.189447 -1.000000
Bq  2.464151  0.201287 -1.000000
Bq  2.480205  0.213127 -1.000000
Bq  2.496259  0.224968 -1.000000
Bq  2.512312  0.236808 -1.000000
Bq  2.528366  0.248649 -1.000000
Bq  2.544420  0.260489 -1.000000
Bq  2.560473  0.272329 -1.000000
Bq  2.576527  0.284170 -1.000000
Bq  2.592581  0.296010 -1.000000
Bq  2.608635  0.307851 -1.000000
Bq  2.624688  0.319691 -1.000000
Bq  2.640742  0.331531 -1.000000
Bq  2.656796  0.343372 -1.000000
Bq  2.672849  0.355212 -1.000000
Bq  2.688903  0.367053 -1.000000
Bq  2.704957  0.378893 -1.000000
Bq  2.721011  0.390733 -1.000000
Bq  2.737064  0.402574 -1.000000
Bq  2.753118  0.414414 -1.000000
Bq  2.769172  0.426255 -1.000000
Bq  2.785225  0.438095 -1.000000
Bq  2.801279  0.449936 -1.000000
Bq  2.817333  0.461776 -1.000000
Bq  2.833387  0.473616 -1.000000
Bq  2.849440  0.485457 -1.000000
Bq  2.865494  0.497297 -1.000000
Bq  2.881548  0.509138 -1.000000
Bq  2.897601  0.520978 -1.000000
Bq  2.913655  0.532818 -1.000000
Bq  2.929709  0.544659 -1.000000
Bq  2.945763  0.556499 -1.000000
Bq  2.961816  0.568340 -1.000000
Bq  2.977870  0.580180 -1.000000
